FoamFile
{
    version     2.0;
    format      ascii;
    class       dictionary;
    object      snappyHexMeshDict;
}

castellatedMesh true;
snap            true;
addLayers       false;

geometry
{
    cylinder.stl
    {
        type triSurfaceMesh;
        name cylinder;
    }
    refinementBox
    {
        type searchableBox;
        min (4.0 1.25 0.0);
        max (6.0 2.75 1.2);
    }
};

castellatedMeshControls
{
    maxLocalCells 2000000;
    maxGlobalCells 6000000;
    minRefinementCells 10;
    maxLoadUnbalance 0.10;
    nCellsBetweenLevels 3;

    features
    (
    );

    refinementSurfaces
    {
        cylinder
        {
            level (2 3);
        }
    }

    resolveFeatureAngle 30;

    refinementRegions
    {
        refinementBox
        {
            mode inside;
            levels ((1.0 1));
        }
    }

    locationInMesh (1.0 2.0 0.4);
    allowFreeStandingZoneFaces true;
}

snapControls
{
    nSmoothPatch 3;
    tolerance 2.0;
    nSolveIter 30;
    nRelaxIter 5;
    nFeatureSnapIter 10;
}

addLayersControls
{
    relativeSizes true;
    layers
    {
    }
    expansionRatio 1.2;
    finalLayerThickness 0.5;
    minThickness 0.1;
}

meshQualityControls
{
    maxNonOrtho 65;
    maxBoundarySkewness 20;
    maxInternalSkewness 4;
    maxConcave 80;
    minVol 1e-13;
    minTetQuality 1e-15;
    minArea -1;
    minTwist 0.02;
    minDeterminant 0.001;
    minFaceWeight 0.02;
    minVolRatio 0.01;
    minTriangleTwist -1;
    nSmoothScale 4;
    errorReduction 0.75;
}

mergeTolerance 1e-6;
